$# LS-DYNA Keyword file created by LS-PrePost(R) V4.3 - 27Jun2016(09:00)
$# Created on Apr-05-2017 (17:24:30)
*KEYWORD  
*SET_NODE_LIST_TITLE
bot
$#     sid       da1       da2       da3       da4    solver      
         1       0.0       0.0       0.0       0.0MECH
$#    nid1      nid2      nid3      nid4      nid5      nid6      nid7      nid8
       409       418       421       422       423       424       425       426
       629       630       631       632       633       634       635       636
       637       638       639       640       641       642       643       644
       645       646       647       648       649       650       651       652
       653       654       655       656       657       658       659       660
       661       662       663       664       665       666       667       668
       669       670       671       672       673       674       675       676
       677       678       679       680       681       682       683       684
       685       686       687       688         0         0         0         0
*BOUNDARY_TEMPERATURE_SET
$#    nsid      lcid     cmult       loc   
         1         1       1.0         0
*NODE
$#   nid               x               y               z      tc      rc  
       1             0.0             0.0             0.0       0       0
      16             0.0             1.0             0.0       0       0
      23             0.0        0.142857             0.0       0       0
      24             0.0        0.285714             0.0       0       0
      25             0.0        0.428571             0.0       0       0
      26             0.0        0.571429             0.0       0       0
      27             0.0        0.714286             0.0       0       0
      28             0.0        0.857143             0.0       0       0
     281             1.0             1.0             0.0       0       0
     282        0.142857             1.0             0.0       0       0
     283        0.285714             1.0             0.0       0       0
     284        0.428571             1.0             0.0       0       0
     285        0.571429             1.0             0.0       0       0
     286        0.714286             1.0             0.0       0       0
     287        0.857143             1.0             0.0       0       0
     288             1.0             0.0             0.0       0       0
     289             1.0        0.142857             0.0       0       0
     290             1.0        0.285714             0.0       0       0
     291             1.0        0.428571             0.0       0       0
     292             1.0        0.571429             0.0       0       0
     293             1.0        0.714286             0.0       0       0
     294             1.0        0.857143             0.0       0       0
     295        0.142857             0.0             0.0       0       0
     296        0.285714             0.0             0.0       0       0
     297        0.428571             0.0             0.0       0       0
     298        0.571429             0.0             0.0       0       0
     299        0.714286             0.0             0.0       0       0
     300        0.857143             0.0             0.0       0       0
     301        0.807124        0.868266             0.0       0       0
     302        0.883852        0.761124             0.0       0       0
     303        0.873692        0.641059             0.0       0       0
     304        0.649013        0.866443             0.0       0       0
     305         0.80617        0.131719             0.0       0       0
     306        0.883572        0.239649             0.0       0       0
     307         0.64465        0.130915             0.0       0       0
     308        0.131214        0.806178             0.0       0       0
     309        0.238176        0.882329             0.0       0       0
     310        0.133564        0.649008             0.0       0       0
     311        0.873431        0.361085             0.0       0       0
     312         0.86998         0.50337             0.0       0       0
     313        0.358471        0.870874             0.0       0       0
     314        0.497077        0.869724             0.0       0       0
     315         0.19287        0.131997             0.0       0       0
     316        0.116287        0.239119             0.0       0       0
     317        0.351406        0.133332             0.0       0       0
     318        0.502923        0.130276             0.0       0       0
     319        0.126566        0.359508             0.0       0       0
     320        0.130276        0.497077             0.0       0       0
     321        0.738719        0.276834             0.0       0       0
     322        0.749817        0.431984             0.0       0       0
     323        0.750105        0.571269             0.0       0       0
     324        0.575064        0.265104             0.0       0       0
     325        0.739645        0.724189             0.0       0       0
     326        0.575665        0.735927             0.0       0       0
     327        0.428304        0.738382             0.0       0       0
     328        0.272895        0.735382             0.0       0       0
     329        0.425595        0.265526             0.0       0       0
     330        0.254469        0.573552             0.0       0       0
     331        0.251248        0.430827             0.0       0       0
     332        0.260959        0.276671             0.0       0       0
     333        0.639272         0.62493             0.0       0       0
     334        0.362201        0.377234             0.0       0       0
     335        0.365878         0.62781             0.0       0       0
     336          0.3726        0.501764             0.0       0       0
     337        0.501372          0.5917             0.0       0       0
     338        0.638755        0.377373             0.0       0       0
     339        0.500601         0.41138             0.0       0       0
     340        0.629987         0.50144             0.0       0       0
     409             0.0             0.0             0.0       0       0
     410             0.0             0.0        0.285714       0       0
     411             0.0             0.0        0.428571       0       0
     412             0.0        0.142857             1.0       0       0
     413             0.0        0.285714             1.0       0       0
     414             0.0        0.428571             1.0       0       0
     415             0.0        0.571429             1.0       0       0
     416             0.0        0.714286             1.0       0       0
     417             0.0        0.857143             1.0       0       0
     418             0.0             1.0             0.0       0       0
     419             0.0             1.0        0.428571       0       0
     420             0.0             1.0        0.571429       0       0
     421             0.0        0.142857             0.0       0       0
     422             0.0        0.285714             0.0       0       0
     423             0.0        0.428571             0.0       0       0
     424             0.0        0.571429             0.0       0       0
     425             0.0        0.714286             0.0       0       0
     426             0.0        0.857143             0.0       0       0
     427             0.0        0.807124        0.868266       0       0
     428             0.0        0.883852        0.761124       0       0
     429             0.0        0.873692        0.641059       0       0
     430             0.0        0.649013        0.866443       0       0
     431             0.0         0.80617        0.131719       0       0
     432             0.0        0.883572        0.239649       0       0
     433             0.0         0.64465        0.130915       0       0
     434             0.0        0.131214        0.806178       0       0
     435             0.0        0.238176        0.882329       0       0
     436             0.0        0.133564        0.649008       0       0
     437             0.0        0.873431        0.361085       0       0
     438             0.0         0.86998         0.50337       0       0
     439             0.0        0.358471        0.870874       0       0
     440             0.0        0.497077        0.869724       0       0
     441             0.0         0.19287        0.131997       0       0
     442             0.0        0.116287        0.239119       0       0
     443             0.0        0.351406        0.133332       0       0
     444             0.0        0.502923        0.130276       0       0
     445             0.0        0.126566        0.359508       0       0
     446             0.0        0.130276        0.497077       0       0
     447             0.0        0.738719        0.276834       0       0
     448             0.0        0.749817        0.431984       0       0
     449             0.0        0.750105        0.571269       0       0
     450             0.0        0.575064        0.265104       0       0
     451             0.0        0.739645        0.724189       0       0
     452             0.0        0.575665        0.735927       0       0
     453             0.0        0.428304        0.738382       0       0
     454             0.0        0.272895        0.735382       0       0
     455             0.0        0.425595        0.265526       0       0
     456             0.0        0.254469        0.573552       0       0
     457             0.0        0.251248        0.430827       0       0
     458             0.0        0.260959        0.276671       0       0
     459             0.0        0.639272         0.62493       0       0
     460             0.0        0.362201        0.377234       0       0
     461             0.0        0.365878         0.62781       0       0
     462             0.0          0.3726        0.501764       0       0
     463             0.0        0.501372          0.5917       0       0
     464             0.0        0.638755        0.377373       0       0
     465             0.0        0.500601         0.41138       0       0
     466             0.0        0.629987         0.50144       0       0
     467             1.0             0.0             1.0       0       0
     468             1.0             0.0        0.142857       0       0
     469             1.0             0.0        0.428571       0       0
     470             1.0             0.0        0.571429       0       0
     471             1.0             0.0        0.857143       0       0
     472             1.0             1.0             1.0       0       0
     473             1.0        0.142857             1.0       0       0
     474             1.0        0.285714             1.0       0       0
     475             1.0        0.428571             1.0       0       0
     476             1.0        0.571429             1.0       0       0
     477             1.0        0.714286             1.0       0       0
     478             1.0        0.857143             1.0       0       0
     479             1.0             1.0        0.428571       0       0
     480             1.0             1.0        0.714286       0       0
     481             1.0        0.807124        0.868266       0       0
     482             1.0        0.883852        0.761124       0       0
     483             1.0        0.873692        0.641059       0       0
     484             1.0        0.649013        0.866443       0       0
     485             1.0         0.80617        0.131719       0       0
     486             1.0        0.883572        0.239649       0       0
     487             1.0         0.64465        0.130915       0       0
     488             1.0        0.131214        0.806178       0       0
     489             1.0        0.238176        0.882329       0       0
     490             1.0        0.133564        0.649008       0       0
     491             1.0        0.873431        0.361085       0       0
     492             1.0         0.86998         0.50337       0       0
     493             1.0        0.358471        0.870874       0       0
     494             1.0        0.497077        0.869724       0       0
     495             1.0         0.19287        0.131997       0       0
     496             1.0        0.116287        0.239119       0       0
     497             1.0        0.351406        0.133332       0       0
     498             1.0        0.502923        0.130276       0       0
     499             1.0        0.126566        0.359508       0       0
     500             1.0        0.130276        0.497077       0       0
     501             1.0        0.738719        0.276834       0       0
     502             1.0        0.749817        0.431984       0       0
     503             1.0        0.750105        0.571269       0       0
     504             1.0        0.575064        0.265104       0       0
     505             1.0        0.739645        0.724189       0       0
     506             1.0        0.575665        0.735927       0       0
     507             1.0        0.428304        0.738382       0       0
     508             1.0        0.272895        0.735382       0       0
     509             1.0        0.425595        0.265526       0       0
     510             1.0        0.254469        0.573552       0       0
     511             1.0        0.251248        0.430827       0       0
     512             1.0        0.260959        0.276671       0       0
     513             1.0        0.639272         0.62493       0       0
     514             1.0        0.362201        0.377234       0       0
     515             1.0        0.365878         0.62781       0       0
     516             1.0          0.3726        0.501764       0       0
     517             1.0        0.501372          0.5917       0       0
     518             1.0        0.638755        0.377373       0       0
     519             1.0        0.500601         0.41138       0       0
     520             1.0        0.629987         0.50144       0       0
     521             1.0             0.0        0.285714       0       0
     522             1.0             0.0        0.714286       0       0
     523             0.0             0.0             1.0       0       0
     524        0.142857             0.0             1.0       0       0
     525        0.285714             0.0             1.0       0       0
     526        0.428571             0.0             1.0       0       0
     527        0.571429             0.0             1.0       0       0
     528        0.714286             0.0             1.0       0       0
     529        0.857143             0.0             1.0       0       0
     530             0.0             0.0        0.142857       0       0
     531             0.0             0.0        0.571429       0       0
     532             0.0             0.0        0.714286       0       0
     533             0.0             0.0        0.857143       0       0
     534        0.868266             0.0        0.807124       0       0
     535        0.761124             0.0        0.883852       0       0
     536        0.641059             0.0        0.873692       0       0
     537        0.866443             0.0        0.649013       0       0
     538        0.131719             0.0         0.80617       0       0
     539        0.239649             0.0        0.883572       0       0
     540        0.130915             0.0         0.64465       0       0
     541        0.806178             0.0        0.131214       0       0
     542        0.882329             0.0        0.238176       0       0
     543        0.649008             0.0        0.133564       0       0
     544        0.361085             0.0        0.873431       0       0
     545         0.50337             0.0         0.86998       0       0
     546        0.870874             0.0        0.358471       0       0
     547        0.869724             0.0        0.497077       0       0
     548        0.131997             0.0         0.19287       0       0
     549        0.239119             0.0        0.116287       0       0
     550        0.133332             0.0        0.351406       0       0
     551        0.130276             0.0        0.502923       0       0
     552        0.359508             0.0        0.126566       0       0
     553        0.497077             0.0        0.130276       0       0
     554        0.276834             0.0        0.738719       0       0
     555        0.431984             0.0        0.749817       0       0
     556        0.571269             0.0        0.750105       0       0
     557        0.265104             0.0        0.575064       0       0
     558        0.724189             0.0        0.739645       0       0
     559        0.735927             0.0        0.575665       0       0
     560        0.738382             0.0        0.428304       0       0
     561        0.735382             0.0        0.272895       0       0
     562        0.265526             0.0        0.425595       0       0
     563        0.573552             0.0        0.254469       0       0
     564        0.430827             0.0        0.251248       0       0
     565        0.276671             0.0        0.260959       0       0
     566         0.62493             0.0        0.639272       0       0
     567        0.377234             0.0        0.362201       0       0
     568         0.62781             0.0        0.365878       0       0
     569        0.501764             0.0          0.3726       0       0
     570          0.5917             0.0        0.501372       0       0
     571        0.377373             0.0        0.638755       0       0
     572         0.41138             0.0        0.500601       0       0
     573         0.50144             0.0        0.629987       0       0
     574             1.0             1.0        0.142857       0       0
     575             1.0             1.0        0.285714       0       0
     576             1.0             1.0        0.571429       0       0
     577             1.0             1.0        0.857143       0       0
     578             0.0             1.0             1.0       0       0
     579        0.142857             1.0             1.0       0       0
     580        0.285714             1.0             1.0       0       0
     581        0.428571             1.0             1.0       0       0
     582        0.571429             1.0             1.0       0       0
     583        0.714286             1.0             1.0       0       0
     584        0.857143             1.0             1.0       0       0
     585             0.0             1.0        0.142857       0       0
     586             0.0             1.0        0.285714       0       0
     587             0.0             1.0        0.714286       0       0
     588             0.0             1.0        0.857143       0       0
     589        0.868266             1.0        0.807124       0       0
     590        0.761124             1.0        0.883852       0       0
     591        0.641059             1.0        0.873692       0       0
     592        0.866443             1.0        0.649013       0       0
     593        0.131719             1.0         0.80617       0       0
     594        0.239649             1.0        0.883572       0       0
     595        0.130915             1.0         0.64465       0       0
     596        0.806178             1.0        0.131214       0       0
     597        0.882329             1.0        0.238176       0       0
     598        0.649008             1.0        0.133564       0       0
     599        0.361085             1.0        0.873431       0       0
     600         0.50337             1.0         0.86998       0       0
     601        0.870874             1.0        0.358471       0       0
     602        0.869724             1.0        0.497077       0       0
     603        0.131997             1.0         0.19287       0       0
     604        0.239119             1.0        0.116287       0       0
     605        0.133332             1.0        0.351406       0       0
     606        0.130276             1.0        0.502923       0       0
     607        0.359508             1.0        0.126566       0       0
     608        0.497077             1.0        0.130276       0       0
     609        0.276834             1.0        0.738719       0       0
     610        0.431984             1.0        0.749817       0       0
     611        0.571269             1.0        0.750105       0       0
     612        0.265104             1.0        0.575064       0       0
     613        0.724189             1.0        0.739645       0       0
     614        0.735927             1.0        0.575665       0       0
     615        0.738382             1.0        0.428304       0       0
     616        0.735382             1.0        0.272895       0       0
     617        0.265526             1.0        0.425595       0       0
     618        0.573552             1.0        0.254469       0       0
     619        0.430827             1.0        0.251248       0       0
     620        0.276671             1.0        0.260959       0       0
     621         0.62493             1.0        0.639272       0       0
     622        0.377234             1.0        0.362201       0       0
     623         0.62781             1.0        0.365878       0       0
     624        0.501764             1.0          0.3726       0       0
     625          0.5917             1.0        0.501372       0       0
     626        0.377373             1.0        0.638755       0       0
     627         0.41138             1.0        0.500601       0       0
     628         0.50144             1.0        0.629987       0       0
     629             1.0             1.0             0.0       0       0
     630        0.142857             1.0             0.0       0       0
     631        0.285714             1.0             0.0       0       0
     632        0.428571             1.0             0.0       0       0
     633        0.571429             1.0             0.0       0       0
     634        0.714286             1.0             0.0       0       0
     635        0.857143             1.0             0.0       0       0
     636             1.0             0.0             0.0       0       0
     637             1.0        0.142857             0.0       0       0
     638             1.0        0.285714             0.0       0       0
     639             1.0        0.428571             0.0       0       0
     640             1.0        0.571429             0.0       0       0
     641             1.0        0.714286             0.0       0       0
     642             1.0        0.857143             0.0       0       0
     643        0.142857             0.0             0.0       0       0
     644        0.285714             0.0             0.0       0       0
     645        0.428571             0.0             0.0       0       0
     646        0.571429             0.0             0.0       0       0
     647        0.714286             0.0             0.0       0       0
     648        0.857143             0.0             0.0       0       0
     649        0.807124        0.868266             0.0       0       0
     650        0.883852        0.761124             0.0       0       0
     651        0.873692        0.641059             0.0       0       0
     652        0.649013        0.866443             0.0       0       0
     653         0.80617        0.131719             0.0       0       0
     654        0.883572        0.239649             0.0       0       0
     655         0.64465        0.130915             0.0       0       0
     656        0.131214        0.806178             0.0       0       0
     657        0.238176        0.882329             0.0       0       0
     658        0.133564        0.649008             0.0       0       0
     659        0.873431        0.361085             0.0       0       0
     660         0.86998         0.50337             0.0       0       0
     661        0.358471        0.870874             0.0       0       0
     662        0.497077        0.869724             0.0       0       0
     663         0.19287        0.131997             0.0       0       0
     664        0.116287        0.239119             0.0       0       0
     665        0.351406        0.133332             0.0       0       0
     666        0.502923        0.130276             0.0       0       0
     667        0.126566        0.359508             0.0       0       0
     668        0.130276        0.497077             0.0       0       0
     669        0.738719        0.276834             0.0       0       0
     670        0.749817        0.431984             0.0       0       0
     671        0.750105        0.571269             0.0       0       0
     672        0.575064        0.265104             0.0       0       0
     673        0.739645        0.724189             0.0       0       0
     674        0.575665        0.735927             0.0       0       0
     675        0.428304        0.738382             0.0       0       0
     676        0.272895        0.735382             0.0       0       0
     677        0.425595        0.265526             0.0       0       0
     678        0.254469        0.573552             0.0       0       0
     679        0.251248        0.430827             0.0       0       0
     680        0.260959        0.276671             0.0       0       0
     681        0.639272         0.62493             0.0       0       0
     682        0.362201        0.377234             0.0       0       0
     683        0.365878         0.62781             0.0       0       0
     684          0.3726        0.501764             0.0       0       0
     685        0.501372          0.5917             0.0       0       0
     686        0.638755        0.377373             0.0       0       0
     687        0.500601         0.41138             0.0       0       0
     688        0.629987         0.50144             0.0       0       0
     689        0.807124        0.868266             1.0       0       0
     690        0.883852        0.761124             1.0       0       0
     691        0.873692        0.641059             1.0       0       0
     692        0.649013        0.866443             1.0       0       0
     693         0.80617        0.131719             1.0       0       0
     694        0.883572        0.239649             1.0       0       0
     695         0.64465        0.130915             1.0       0       0
     696        0.131214        0.806178             1.0       0       0
     697        0.238176        0.882329             1.0       0       0
     698        0.133564        0.649008             1.0       0       0
     699        0.873431        0.361085             1.0       0       0
     700         0.86998         0.50337             1.0       0       0
     701        0.358471        0.870874             1.0       0       0
     702        0.497077        0.869724             1.0       0       0
     703         0.19287        0.131997             1.0       0       0
     704        0.116287        0.239119             1.0       0       0
     705        0.351406        0.133332             1.0       0       0
     706        0.502923        0.130276             1.0       0       0
     707        0.126566        0.359508             1.0       0       0
     708        0.130276        0.497077             1.0       0       0
     709        0.738719        0.276834             1.0       0       0
     710        0.749817        0.431984             1.0       0       0
     711        0.750105        0.571269             1.0       0       0
     712        0.575064        0.265104             1.0       0       0
     713        0.739645        0.724189             1.0       0       0
     714        0.575665        0.735927             1.0       0       0
     715        0.428304        0.738382             1.0       0       0
     716        0.272895        0.735382             1.0       0       0
     717        0.425595        0.265526             1.0       0       0
     718        0.254469        0.573552             1.0       0       0
     719        0.251248        0.430827             1.0       0       0
     720        0.260959        0.276671             1.0       0       0
     721        0.639272         0.62493             1.0       0       0
     722        0.362201        0.377234             1.0       0       0
     723        0.365878         0.62781             1.0       0       0
     724          0.3726        0.501764             1.0       0       0
     725        0.501372          0.5917             1.0       0       0
     726        0.638755        0.377373             1.0       0       0
     727        0.500601         0.41138             1.0       0       0
     728        0.629987         0.50144             1.0       0       0
     729        0.348734        0.656088        0.558443       0       0
     730        0.181683        0.726951        0.183131       0       0
     731        0.500197        0.218448        0.785792       0       0
     732         0.82004        0.820052        0.292938       0       0
     733        0.659008        0.847597        0.223803       0       0
     734        0.175355        0.821145        0.705968       0       0
     735        0.193889        0.618351        0.686665       0       0
     736        0.733411        0.351137         0.70904       0       0
     737        0.780346        0.351828         0.22001       0       0
     738        0.212482        0.503101        0.212603       0       0
     739        0.190702        0.199132         0.21741       0       0
     740        0.435437        0.337629        0.421676       0       0
     741        0.655576        0.789818        0.445836       0       0
     742         0.82969         0.17061        0.427155       0       0
     743          0.7252        0.173599        0.170222       0       0
     744        0.552283        0.316744        0.223767       0       0
     745        0.783113        0.180857        0.801387       0       0
     746        0.183251        0.865296        0.271712       0       0
     747        0.155656        0.152409        0.427646       0       0
     748        0.871085        0.128577        0.297798       0       0
     749        0.328707        0.562625        0.818358       0       0
     750        0.383612        0.801567        0.704645       0       0
     751        0.533979        0.501399        0.168226       0       0
     752        0.427155         0.82969         0.17061       0       0
     753        0.141565        0.442578        0.349006       0       0
     754        0.646815        0.479785        0.396924       0       0
     755        0.650597        0.791657        0.786807       0       0
     756        0.501319        0.159308        0.291451       0       0
     757        0.693775         0.17968        0.630758       0       0
     758         0.15771        0.445836        0.655576       0       0
     759         0.12281        0.169643        0.572226       0       0
     760        0.131524        0.868712        0.572299       0       0
     761        0.152947        0.623926        0.311585       0       0
     762        0.351244        0.144929        0.214032       0       0
     763        0.766137        0.608876        0.565121       0       0
     764        0.339329        0.859429        0.299286       0       0
     765        0.293081        0.196735         0.80899       0       0
     766        0.685642        0.833411        0.616567       0       0
     767        0.825569        0.573567        0.179191       0       0
     768        0.865835        0.867111        0.427737       0       0
     769        0.380582        0.408381        0.247273       0       0
     770         0.13992        0.824784        0.419479       0       0
     771        0.329278        0.197743        0.538734       0       0
     772        0.349736         0.78162        0.863321       0       0
     773        0.819736        0.566954         0.38331       0       0
     774        0.855706        0.220925        0.654395       0       0
     775        0.830871        0.729057        0.816989       0       0
     776        0.443559         0.55141        0.395669       0       0
     777        0.173312        0.860242        0.127445       0       0
     778        0.187713        0.560604        0.499048       0       0
     779        0.212929        0.349185        0.144225       0       0
     780        0.142328        0.301647        0.483877       0       0
     781        0.884639        0.115996        0.157975       0       0
     782        0.785761        0.351441        0.863179       0       0
     783        0.282285        0.848403         0.59812       0       0
     784        0.668927        0.307407        0.129508       0       0
     785        0.702287        0.673301         0.28115       0       0
     786        0.547877        0.481432        0.778467       0       0
     787         0.87132        0.833194        0.889016       0       0
     788        0.517815        0.856043        0.301476       0       0
     789         0.31805        0.455815        0.125807       0       0
     790         0.11896         0.12197        0.299267       0       0
     791        0.134794        0.518816        0.792515       0       0
     792        0.560054        0.875409        0.676268       0       0
     793         0.28517         0.65202        0.901507       0       0
     794        0.445836        0.655576        0.867353       0       0
     795        0.820721        0.295542        0.104833       0       0
     796        0.573795        0.128754        0.873204       0       0
     797        0.351137         0.70904        0.124926       0       0
     798        0.675535        0.560109        0.137518       0       0
     799        0.312208        0.131871        0.673756       0       0
     800        0.442578        0.349006          0.8623       0       0
     801        0.137951        0.135275        0.725377       0       0
     802        0.572819        0.138993         0.14226       0       0
     803        0.297086        0.240532        0.357575       0       0
     804        0.538731        0.659904        0.658962       0       0
     805        0.595797         0.67374        0.863771       0       0
     806        0.501679        0.149148        0.468451       0       0
     807        0.134749        0.360266        0.787171       0       0
     808         0.70131         0.87921        0.876191       0       0
     809        0.872692        0.876176        0.572097       0       0
     810        0.130681        0.679668        0.567076       0       0
     811        0.872075        0.872159        0.164888       0       0
     812        0.299751        0.891597        0.892459       0       0
     813        0.844091        0.455829        0.519752       0       0
     814        0.646685        0.125753        0.287769       0       0
     815        0.191048        0.772171        0.856541       0       0
     816        0.422396        0.567622        0.113892       0       0
     817        0.299882         0.88545        0.114765       0       0
     818        0.667814        0.144479        0.470404       0       0
     819        0.430886        0.871476        0.578665       0       0
     820        0.705968         0.08868        0.821145       0       0
     821        0.419328        0.365131        0.645927       0       0
     822        0.506995        0.805713        0.854417       0       0
     823        0.847606        0.862099         0.73789       0       0
     824        0.868054        0.701998        0.130206       0       0
     825        0.863205         0.42277        0.668598       0       0
     826        0.760594        0.310804        0.546673       0       0
     827         0.87167        0.247008         0.22483       0       0
     828        0.427963        0.542704         0.25419       0       0
     829        0.588655        0.300059         0.50334       0       0
     830        0.873472        0.689926        0.328286       0       0
     831        0.653193         0.09578        0.710587       0       0
     832        0.527291        0.679418        0.306694       0       0
     833        0.639744        0.277361        0.849456       0       0
     834        0.124128        0.290885         0.65696       0       0
     835        0.679692        0.434359        0.108417       0       0
     836        0.508237        0.698104          0.1378       0       0
     837        0.651165        0.456389        0.580658       0       0
     838        0.699478        0.632974        0.726814       0       0
     839        0.565669        0.124151        0.601594       0       0
     840        0.828627        0.436152        0.117307       0       0
     841        0.300396        0.106477        0.108747       0       0
     842         0.31682        0.424931        0.868531       0       0
     843        0.392449        0.887606        0.801555       0       0
     844        0.450953        0.119669        0.680768       0       0
     845        0.428365        0.128935        0.875129       0       0
     846        0.555717        0.775623        0.560625       0       0
     847        0.794463         0.75398        0.510859       0       0
     848        0.338118        0.865862        0.454357       0       0
     849         0.46629        0.235538        0.586729       0       0
     850         0.36054         0.30245        0.135825       0       0
     851        0.373935        0.710735        0.383399       0       0
     852        0.294554        0.692661          0.7617       0       0
     853         0.30396         0.44804        0.713465       0       0
     854        0.873733        0.570051        0.658986       0       0
     855        0.133097        0.262124        0.335037       0       0
     856        0.266571        0.340611        0.598283       0       0
     857        0.118473        0.681426        0.430832       0       0
     858        0.859585         0.42159        0.337095       0       0
     859        0.217391        0.909634        0.800659       0       0
     860        0.129235        0.166144        0.870311       0       0
     861        0.890353        0.283264         0.35546       0       0
     862         0.10765         0.30049        0.105442       0       0
     863        0.172432        0.110177        0.125615       0       0
     864        0.516504        0.432919        0.323052       0       0
     865        0.588878        0.203697        0.696993       0       0
     866         0.70804        0.883531        0.352909       0       0
     867        0.888959        0.152904        0.888907       0       0
     868        0.567622        0.892298        0.422396       0       0
     869        0.652222        0.467033        0.249845       0       0
     870        0.457252         0.81326        0.415402       0       0
     871        0.251218        0.112227        0.336815       0       0
     872        0.302189        0.506845        0.342129       0       0
     873        0.893647        0.301632        0.894398       0       0
     874        0.301429        0.105879        0.891215       0       0
     875        0.329944        0.489312        0.552777       0       0
     876        0.428637        0.547678        0.693157       0       0
     877        0.686122        0.543105        0.857243       0       0
     878        0.107581        0.300496        0.892487       0       0
     879        0.428568        0.108078        0.118204       0       0
     880        0.253509        0.738258         0.47252       0       0
     881        0.584118        0.630436        0.465671       0       0
     882        0.870059        0.316718        0.758226       0       0
     883        0.708169        0.185098        0.904056       0       0
     884        0.887577        0.655059        0.561649       0       0
     885        0.875723        0.452031        0.810083       0       0
     886        0.885836        0.296867        0.492053       0       0
     887        0.781792        0.107423        0.693879       0       0
     888        0.107462        0.429483        0.892538       0       0
     889        0.668811         0.33033        0.336499       0       0
     890        0.546161        0.344223        0.720894       0       0
     891        0.125124        0.573823         0.12255       0       0
     892        0.113214        0.433492        0.116199       0       0
     893        0.107817        0.357794        0.225893       0       0
     894        0.757343        0.213946        0.302847       0       0
     895        0.240002        0.312029        0.860069       0       0
     896        0.801517         0.73322        0.664574       0       0
     897        0.455766        0.221641        0.182674       0       0
     898        0.803893        0.133776        0.558943       0       0
     899        0.562052        0.378902        0.109935       0       0
     900        0.349006        0.104884        0.442578       0       0
     901        0.099655        0.881545        0.840516       0       0
     902        0.685699        0.422142        0.892111       0       0
     903        0.754996        0.493162        0.737937       0       0
     904        0.642235        0.302312        0.625201       0       0
     905        0.656688        0.707698        0.123238       0       0
     906        0.420101        0.267709        0.305794       0       0
     907        0.883384        0.571903        0.879895       0       0
     908        0.565078        0.375688        0.893797       0       0
     909        0.239884         0.35458         0.28728       0       0
     910        0.304957        0.641303        0.259691       0       0
     911        0.477698        0.471474        0.887228       0       0
     912        0.463125        0.695313        0.489291       0       0
     913        0.422496        0.442066        0.771438       0       0
     914        0.348259        0.322217        0.760402       0       0
     915        0.486519         0.56473        0.556991       0       0
     916        0.258925        0.391835        0.436389       0       0
     917          0.5463        0.268356        0.368753       0       0
*ELEMENT_SOLID
$#   eid     pid      n1      n2      n3      n4      n5      n6      n7      n8
       1       3     612     595     760     783     783     783     783     783
       2       3     767     785     798     869     869     869     869     869
       3       3     644     645     665     552     552     552     552     552
       4       3     735     749     791     853     853     853     853     853
       5       3     432     603     586     605     605     605     605     605
       6       3     604     607     620     817     817     817     817     817
       7       3     513     505     884     896     896     896     896     896
       8       3     494     699     700     885     885     885     885     885
       9       3     662     632     607     608     608     608     608     608
      10       3     632     662     607     661     661     661     661     661
      11       3     762     803     900     906     906     906     906     906
      12       3     424     425     433     658     658     658     658     658
      13       3     613     621     766     792     792     792     792     792
      14       3     667     443     862     892     892     892     892     892
      15       3     699     493     475     474     474     474     474     474
      16       3     742     500     886     898     898     898     898     898
      17       3     640     498     651     660     660     660     660     660
      18       3     771     799     844     849     849     849     849     849
      19       3     813     515     825     886     886     886     886     886
      20       3     571     771     799     844     844     844     844     844
      21       3     737     743     827     894     894     894     894     894
      22       3     553     564     756     879     879     879     879     879
      23       3     627     819     848     870     870     870     870     870
      24       3     552     665     841     879     879     879     879     879
      25       3     753     855     909     916     916     916     916     916
      26       3     500     470     547     469     469     469     469     469
      27       3     813     754     858     889     889     889     889     889
      28       3     738     444     891     892     892     892     892     892
      29       3     526     544     705     845     845     845     845     845
      30       3     772     716     812     815     815     815     815     815
      31       3     820     558     831     887     887     887     887     887
      32       3     776     828     832     864     864     864     864     864
      33       3     864     744     869     889     889     889     889     889
      34       3     707     720     878     895     895     895     895     895
      35       3     449     438     429     760     760     760     760     760
      36       3     755     804     805     822     822     822     822     822
      37       3     459     451     452     735     735     735     735     735
      38       3     864     744     889     917     917     917     917     917
      39       3     420     595     429     760     760     760     760     760
      40       3     733     618     788     866     866     866     866     866
      41       3     782     709     833     883     883     883     883     883
      42       3     765     799     801     834     834     834     834     834
      43       3     850     744     897     899     899     899     899     899
      44       3     596     649     635     811     811     811     811     811
      45       3     621     625     766     792     792     792     792     792
      46       3     606     419     438     420     420     420     420     420
      47       3     447     761     770     857     857     857     857     857
      48       3     601     597     486     732     732     732     732     732
      49       3     739     458     855     893     893     893     893     893
      50       3     445     442     458     790     790     790     790     790
      51       3     752     661     797     817     817     817     817     817
      52       3     739     441     862     863     863     863     863     863
      53       3     502     492     491     768     768     768     768     768
      54       3     431     432     730     746     746     746     746     746
      55       3     688     685     687     751     751     751     751     751
      56       3     550     445     747     790     790     790     790     790
      57       3     768     614     602     615     615     615     615     615
      58       3     662     652     598     733     733     733     733     733
      59       3     656     657     630     777     777     777     777     777
      60       3     730     746     761     910     910     910     910     910
      61       3     764     848     851     870     870     870     870     870
      62       3     482     480     592     823     823     823     823     823
      63       3     809     766     847     896     896     896     896     896
      64       3     482     589     480     823     823     823     823     823
      65       3     756     744     897     906     906     906     906     906
      66       3     774     515     825     882     882     882     882     882
      67       3     653     743     781     795     795     795     795     795
      68       3     744     672     784     802     802     802     802     802
      69       3     788     764     851     870     870     870     870     870
      70       3     620     607     619     764     764     764     764     764
      71       3     830     502     847     884     884     884     884     884
      72       3     733     732     785     905     905     905     905     905
      73       3     555     544     845     874     874     874     874     874
      74       3     703     539     860     874     874     874     874     874
      75       3     748     496     781     827     827     827     827     827
      76       3     421     664     441     863     863     863     863     863
      77       3     774     537     887     898     898     898     898     898
      78       3     449     438     760     770     770     770     770     770
      79       3     498     651     660     767     767     767     767     767
      80       3     650     651     641     824     824     824     824     824
      81       3     740     806     829     849     849     849     849     849
      82       3     510     511     500     886     886     886     886     886
      83       3     737     767     840     869     869     869     869     869
      84       3     699     709     782     873     873     873     873     873
      85       3     853     821     856     875     875     875     875     875
      86       3     451     430     735     815     815     815     815     815
      87       3     481     505     775     823     823     823     823     823
      88       3     492     502     503     768     768     768     768     768
      89       3     511     499     742     861     861     861     861     861
      90       3     512     497     495     827     827     827     827     827
      91       3     557     747     759     771     771     771     771     771
      92       3     567     762     871     900     900     900     900     900
      93       3     804     786     837     838     838     838     838     838
      94       3     678     738     797     891     891     891     891     891
      95       3     520     502     830     884     884     884     884     884
      96       3     607     608     619     752     752     752     752     752
      97       3     680     682     779     850     850     850     850     850
      98       3     549     643     663     644     644     644     644     644
      99       3     493     508     873     882     882     882     882     882
     100       3     721     728     805     877     877     877     877     877
     101       3     435     413     412     704     704     704     704     704
     102       3     609     734     783     859     859     859     859     859
     103       3     566     556     558     831     831     831     831     831
     104       3     443     458     862     893     893     893     893     893
     105       3     508     510     490     774     774     774     774     774
     106       3     730     738     891     910     910     910     910     910
     107       3     680     663     841     863     863     863     863     863
     108       3     686     672     784     899     899     899     899     899
     109       3     516     515     813     886     886     886     886     886
     110       3     755     792     804     822     822     822     822     822
     111       3     788     741     868     870     870     870     870     870
     112       3     455     443     892     893     893     893     893     893
     113       3     605     437     746     770     770     770     770     770
     114       3     776     729     875     915     915     915     915     915
     115       3     746     764     770     880     880     880     880     880
     116       3     560     742     814     818     818     818     818     818
     117       3     573     556     839     844     844     844     844     844
     118       3     530     548     442     410     410     410     410     410
     119       3     754     776     832     864     864     864     864     864
     120       3     450     433     761     891     891     891     891     891
     121       3     744     751     769     864     864     864     864     864
     122       3     500     490     774     898     898     898     898     898
     123       3     739     565     790     863     863     863     863     863
     124       3     451     449     429     734     734     734     734     734
     125       3     495     654     637     781     781     781     781     781
     126       3     669     655     653     743     743     743     743     743
     127       3     549     565     841     863     863     863     863     863
     128       3     593     734     859     901     901     901     901     901
     129       3     779     769     789     909     909     909     909     909
     130       3     813     763     854     884     884     884     884     884
     131       3     762     841     850     879     879     879     879     879
     132       3     631     657     604     630     630     630     630     630
     133       3     664     421     441     422     422     422     422     422
     134       3     783     729     810     880     880     880     880     880
     135       3     752     797     832     910     910     910     910     910
     136       3     735     452     758     791     791     791     791     791
     137       3     411     550     410     445     445     445     445     445
     138       3     541     648     653     781     781     781     781     781
     139       3     499     546     547     742     742     742     742     742
     140       3     423     668     424     444     444     444     444     444
     141       3     759     436     801     834     834     834     834     834
     142       3     744     751     864     869     869     869     869     869
     143       3     750     734     852     859     859     859     859     859
     144       3     769     751     789     816     816     816     816     816
     145       3     752     832     851     910     910     910     910     910
     146       3     669     672     655     784     784     784     784     784
     147       3     765     717     800     895     895     895     895     895
     148       3     482     481     787     823     823     823     823     823
     149       3     801     454     807     834     834     834     834     834
     150       3     782     736     902     903     903     903     903     903
     151       3     500     499     547     742     742     742     742     742
     152       3     825     736     882     885     885     885     885     885
     153       3     771     740     821     849     849     849     849     849
     154       3     535     745     883     867     867     867     867     867
     155       3     679     779     789     892     892     892     892     892
     156       3     491     601     732     768     768     768     768     768
     157       3     546     560     742     748     748     748     748     748
     158       3     411     446     531     551     551     551     551     551
     159       3     773     763     813     884     884     884     884     884
     160       3     688     686     835     899     899     899     899     899
     161       3     713     692     689     808     808     808     808     808
     162       3     632     607     631     661     661     661     661     661
     163       3     555     571     799     844     844     844     844     844
     164       3     425     431     433     658     658     658     658     658
     165       3     423     667     443     422     422     422     422     422
     166       3     619     608     618     788     788     788     788     788
     167       3     619     622     764     788     788     788     788     788
     168       3     788     733     832     836     836     836     836     836
     169       3     753     738     761     872     872     872     872     872
     170       3     739     779     862     893     893     893     893     893
     171       3     434     538     801     860     860     860     860     860
     172       3     614     592     613     823     823     823     823     823
     173       3     751     687     789     816     816     816     816     816
     174       3     733     785     832     905     905     905     905     905
     175       3     746     620     764     817     817     817     817     817
     176       3     727     728     908     911     911     911     911     911
     177       3     561     743     814     894     894     894     894     894
     178       3     725     724     794     911     911     911     911     911
     179       3     776     881     912     915     915     915     915     915
     180       3     668     424     444     891     891     891     891     891
     181       3     441     664     862     863     863     863     863     863
     182       3     497     498     639     840     840     840     840     840
     183       3     790     739     855     871     871     871     871     871
     184       3     433     730     761     891     891     891     891     891
     185       3     723     724     749     794     794     794     794     794
     186       3     747     759     771     780     780     780     780     780
     187       3     442     441     458     739     739     739     739     739
     188       3     563     553     756     802     802     802     802     802
     189       3     717     712     731     800     800     800     800     800
     190       3     561     743     748     781     781     781     781     781
     191       3     548     442     410     790     790     790     790     790
     192       3     758     735     791     853     853     853     853     853
     193       3     553     645     666     646     646     646     646     646
     194       3     575     601     597     486     486     486     486     486
     195       3     743     744     814     894     894     894     894     894
     196       3     849     731     865     890     890     890     890     890
     197       3     442     739     790     863     863     863     863     863
     198       3     511     514     512     861     861     861     861     861
     199       3     815     697     859     901     901     901     901     901
     200       3     801     765     860     874     874     874     874     874
     201       3     744     672     897     899     899     899     899     899
     202       3     779     738     789     892     892     892     892     892
     203       3     779     682     789     850     850     850     850     850
     204       3     722     727     800     911     911     911     911     911
     205       3     733     832     836     905     905     905     905     905
     206       3     806     568     814     818     818     818     818     818
     207       3     451     429     428     734     734     734     734     734
     208       3     615     616     601     866     866     866     866     866
     209       3     599     701     812     843     843     843     843     843
     210       3     462     460     465     753     753     753     753     753
     211       3     746     617     770     848     848     848     848     848
     212       3     826     754     829     837     837     837     837     837
     213       3     570     568     806     818     818     818     818     818
     214       3     839     806     844     849     849     849     849     849
     215       3     493     507     882     885     885     885     885     885
     216       3     437     432     605     746     746     746     746     746
     217       3     432     603     585     586     586     586     586     586
     218       3     450     455     738     753     753     753     753     753
     219       3     412     435     704     860     860     860     860     860
     220       3     455     450     465     753     753     753     753     753
     221       3     571     557     554     799     799     799     799     799
     222       3     825     736     885     903     903     903     903     903
     223       3     419     437     586     605     605     605     605     605
     224       3     446     445     457     747     747     747     747     747
     225       3     587     593     588     428     428     428     428     428
     226       3     434     538     532     801     801     801     801     801
     227       3     585     418     630     426     426     426     426     426
     228       3     757     566     831     839     839     839     839     839
     229       3     561     542     541     781     781     781     781     781
     230       3     425     431     658     656     656     656     656     656
     231       3     716     772     793     815     815     815     815     815
     232       3     776     769     864     872     872     872     872     872
     233       3     425     431     656     426     426     426     426     426
     234       3     431     658     656     730     730     730     730     730
     235       3     563     564     569     756     756     756     756     756
     236       3     792     750     804     822     822     822     822     822
     237       3     465     753     761     778     778     778     778     778
     238       3     825     774     826     886     886     886     886     886
     239       3     423     668     444     892     892     892     892     892
     240       3     756     762     900     906     906     906     906     906
     241       3     507     517     825     854     854     854     854     854
     242       3     431     433     658     730     730     730     730     730
     243       3     768     503     809     847     847     847     847     847
     244       3     749     718     791     842     842     842     842     842
     245       3     559     757     818     839     839     839     839     839
     246       3     732     741     785     830     830     830     830     830
     247       3     437     432     586     605     605     605     605     605
     248       3     551     540     557     759     759     759     759     759
     249       3     531     446     436     759     759     759     759     759
     250       3     606     595     420     760     760     760     760     760
     251       3     482     577     589     787     787     787     787     787
     252       3     440     415     414     708     708     708     708     708
     253       3     750     734     783     852     852     852     852     852
     254       3     667     443     422     862     862     862     862     862
     255       3     651     487     641     824     824     824     824     824
     256       3     562     550     551     747     747     747     747     747
     257       3     663     549     644     841     841     841     841     841
     258       3     599     609     812     859     859     859     859     859
     259       3     567     569     756     900     900     900     900     900
     260       3     713     714     692     808     808     808     808     808
     261       3     757     826     829     904     904     904     904     904
     262       3     832     754     864     869     869     869     869     869
     263       3     431     432     447     730     730     730     730     730
     264       3     766     763     846     847     847     847     847     847
     265       3     551     557     747     759     759     759     759     759
     266       3     814     818     889     917     917     917     917     917
     267       3     609     612     626     783     783     783     783     783
     268       3     440     439     453     888     888     888     888     888
     269       3     658     678     676     730     730     730     730     730
     270       3     490     537     774     898     898     898     898     898
     271       3     793     735     815     852     852     852     852     852
     272       3     553     564     563     756     756     756     756     756
     273       3     661     675     752     797     797     797     797     797
     274       3     462     460     753     780     780     780     780     780
     275       3     799     555     845     874     874     874     874     874
     276       3     867     694     873     883     883     883     883     883
     277       3     743     669     784     795     795     795     795     795
     278       3     594     599     580     812     812     812     812     812
     279       3     449     770     810     857     857     857     857     857
     280       3     508     490     488     774     774     774     774     774
     281       3     729     750     783     852     852     852     852     852
     282       3     702     599     600     843     843     843     843     843
     283       3     755     613     766     792     792     792     792     792
     284       3     805     786     838     877     877     877     877     877
     285       3     414     707     413     439     439     439     439     439
     286       3     748     512     827     861     861     861     861     861
     287       3     610     750     792     843     843     843     843     843
     288       3     735     734     783     810     810     810     810     810
     289       3     446     457     456     759     759     759     759     759
     290       3     794     786     804     805     805     805     805     805
     291       3     743     748     781     827     827     827     827     827
     292       3     459     452     463     735     735     735     735     735
     293       3     698     416     430     415     415     415     415     415
     294       3     563     543     802     814     814     814     814     814
     295       3     440     698     415     708     708     708     708     708
     296       3     416     427     696     815     815     815     815     815
     297       3     618     623     624     788     788     788     788     788
     298       3     741     733     788     866     866     866     866     866
     299       3     609     626     750     783     783     783     783     783
     300       3     452     463     735     758     758     758     758     758
     301       3     518     504     519     773     773     773     773     773
     302       3     763     766     838     896     896     896     896     896
     303       3     657     631     604     817     817     817     817     817
     304       3     723     749     793     794     794     794     794     794
     305       3     734     815     859     901     901     901     901     901
     306       3     411     446     551     747     747     747     747     747
     307       3     565     739     762     863     863     863     863     863
     308       3     568     756     563     569     569     569     569     569
     309       3     816     797     828     836     836     836     836     836
     310       3     829     821     849     890     890     890     890     890
     311       3     662     607     661     752     752     752     752     752
     312       3     611     610     792     843     843     843     843     843
     313       3     440     698     708     791     791     791     791     791
     314       3     615     601     768     866     866     866     866     866
     315       3     809     847     884     896     896     896     896     896
     316       3     733     741     788     832     832     832     832     832
     317       3     772     793     815     852     852     852     852     852
     318       3     449     429     734     760     760     760     760     760
     319       3     693     694     867     883     883     883     883     883
     320       3     763     754     837     881     881     881     881     881
     321       3     431     656     426     777     777     777     777     777
     322       3     502     768     830     847     847     847     847     847
     323       3     714     692     808     822     822     822     822     822
     324       3     769     751     828     864     864     864     864     864
     325       3     411     550     445     747     747     747     747     747
     326       3     482     483     505     823     823     823     823     823
     327       3     595     587     420     429     429     429     429     429
     328       3     427     416     696     417     417     417     417     417
     329       3     827     509     858     861     861     861     861     861
     330       3     497     654     495     795     795     795     795     795
     331       3     577     584     589     787     787     787     787     787
     332       3     719     718     842     888     888     888     888     888
     333       3     452     451     430     735     735     735     735     735
     334       3     534     535     745     820     820     820     820     820
     335       3     587     595     593     428     428     428     428     428
     336       3     595     587     429     428     428     428     428     428
     337       3     537     522     488     534     534     534     534     534
     338       3     709     710     782     902     902     902     902     902
     339       3     536     556     796     820     820     820     820     820
     340       3     440     698     430     415     415     415     415     415
     341       3     749     842     853     913     913     913     913     913
     342       3     599     702     581     701     701     701     701     701
     343       3     782     736     833     902     902     902     902     902
     344       3     803     739     855     909     909     909     909     909
     345       3     769     850     906     909     909     909     909     909
     346       3     839     849     865     904     904     904     904     904
     347       3     769     738     789     909     909     909     909     909
     348       3     750     792     804     846     846     846     846     846
     349       3     542     521     496     748     748     748     748     748
     350       3     679     682     684     789     789     789     789     789
     351       3     550     410     445     790     790     790     790     790
     352       3     579     697     594     580     580     580     580     580
     353       3     687     684     789     816     816     816     816     816
     354       3     741     615     768     866     866     866     866     866
     355       3     584     583     590     689     689     689     689     689
     356       3     732     616     733     866     866     866     866     866
     357       3     494     699     475     700     700     700     700     700
     358       3     564     567     569     756     756     756     756     756
     359       3     772     750     794     852     852     852     852     852
     360       3     619     607     752     764     764     764     764     764
     361       3     850     762     897     906     906     906     906     906
     362       3     566     556     831     839     839     839     839     839
     363       3     614     625     741     766     766     766     766     766
     364       3     678     679     684     789     789     789     789     789
     365       3     738     450     753     761     761     761     761     761
     366       3     495     497     795     827     827     827     827     827
     367       3     580     599     581     701     701     701     701     701
     368       3     504     518     501     830     830     830     830     830
     369       3     832     798     836     905     905     905     905     905
     370       3     562     567     871     900     900     900     900     900
     371       3     686     669     670     784     784     784     784     784
     372       3     613     590     808     823     823     823     823     823
     373       3     688     685     751     798     798     798     798     798
     374       3     789     678     797     816     816     816     816     816
     375       3     797     816     828     910     910     910     910     910
     376       3     455     444     738     892     892     892     892     892
     377       3     734     735     783     852     852     852     852     852
     378       3     844     839     849     865     865     865     865     865
     379       3     611     613     755     792     792     792     792     792
     380       3     656     431     730     777     777     777     777     777
     381       3     447     730     746     761     761     761     761     761
     382       3     623     616     615     866     866     866     866     866
     383       3     614     766     809     823     823     823     823     823
     384       3     713     689     787     808     808     808     808     808
     385       3     718     724     749     793     793     793     793     793
     386       3     665     677     850     879     879     879     879     879
     387       3     731     833     865     890     890     890     890     890
     388       3     486     597     574     811     811     811     811     811
     389       3     441     664     422     862     862     862     862     862
     390       3     601     616     597     732     732     732     732     732
     391       3     676     656     730     777     777     777     777     777
     392       3     828     751     832     864     864     864     864     864
     393       3     614     613     621     766     766     766     766     766
     394       3     499     546     742     748     748     748     748     748
     395       3     741     733     785     832     832     832     832     832
     396       3     491     601     486     732     732     732     732     732
     397       3     756     802     879     897     897     897     897     897
     398       3     757     736     774     826     826     826     826     826
     399       3     522     488     534     471     471     471     471     471
     400       3     512     509     827     861     861     861     861     861
     401       3     534     558     820     887     887     887     887     887
     402       3     612     595     606     760     760     760     760     760
     403       3     448     447     770     857     857     857     857     857
     404       3     412     524     523     533     533     533     533     533
     405       3     736     786     837     890     890     890     890     890
     406       3     737     827     858     861     861     861     861     861
     407       3     751     769     789     899     899     899     899     899
     408       3     756     563     802     814     814     814     814     814
     409       3     538     533     434     532     532     532     532     532
     410       3     541     542     468     781     781     781     781     781
     411       3     561     546     542     748     748     748     748     748
     412       3     741     732     785     866     866     866     866     866
     413       3     766     755     792     804     804     804     804     804
     414       3     797     730     891     910     910     910     910     910
     415       3     718     749     791     793     793     793     793     793
     416       3     705     765     845     874     874     874     874     874
     417       3     617     605     746     770     770     770     770     770
     418       3     718     708     791     888     888     888     888     888
     419       3     625     766     792     846     846     846     846     846
     420       3     826     858     861     889     889     889     889     889
     421       3     436     531     540     532     532     532     532     532
     422       3     412     533     434     860     860     860     860     860
     423       3     759     557     771     799     799     799     799     799
     424       3     740     754     864     915     915     915     915     915
     425       3     818     757     826     829     829     829     829     829
     426       3     683     675     797     816     816     816     816     816
     427       3     557     540     554     799     799     799     799     799
     428       3     438     606     420     760     760     760     760     760
     429       3     492     602     768     809     809     809     809     809
     430       3     795     670     835     840     840     840     840     840
     431       3     650     485     642     811     811     811     811     811
     432       3     568     560     814     818     818     818     818     818
     433       3     625     614     621     766     766     766     766     766
     434       3     786     800     908     911     911     911     911     911
     435       3     546     561     560     748     748     748     748     748
     436       3     429     595     428     734     734     734     734     734
     437       3     550     411     551     747     747     747     747     747
     438       3     702     600     822     843     843     843     843     843
     439       3     432     603     746     777     777     777     777     777
     440       3     575     491     601     486     486     486     486     486
     441       3     505     513     854     896     896     896     896     896
     442       3     697     812     815     859     859     859     859     859
     443       3     736     782     885     903     903     903     903     903
     444       3     767     798     840     869     869     869     869     869
     445       3     773     767     785     830     830     830     830     830
     446       3     785     798     832     905     905     905     905     905
     447       3     751     685     816     836     836     836     836     836
     448       3     655     647     543     646     646     646     646     646
     449       3     769     872     909     916     916     916     916     916
     450       3     561     563     568     814     814     814     814     814
[...]
    1802       3     711     713     775     877     877     877     877     877
    1803       3     775     713     805     877     877     877     877     877
    1804       3     537     490     774     887     887     887     887     887
    1805       3     511     516     514     886     886     886     886     886
    1806       3     707     414     708     888     888     888     888     888
    1807       3     707     708     719     888     888     888     888     888
    1808       3     786     838     877     903     903     903     903     903
    1809       3     776     832     851     912     912     912     912     912
    1810       3     711     728     721     877     877     877     877     877
    1811       3     786     877     902     903     903     903     903     903
    1812       3     826     742     861     886     886     886     886     886
    1813       3     713     711     721     877     877     877     877     877
    1814       3     564     553     552     879     879     879     879     879
    1815       3     677     665     666     879     879     879     879     879
    1816       3     553     645     552     879     879     879     879     879
    1817       3     665     645     666     879     879     879     879     879
    1818       3     761     778     872     880     880     880     880     880
    1819       3     760     783     810     880     880     880     880     880
    1820       3     770     760     810     880     880     880     880     880
    1821       3     760     770     783     880     880     880     880     880
    1822       3     740     771     856     916     916     916     916     916
    1823       3     786     821     890     913     913     913     913     913
    1824       3     800     842     911     913     913     913     913     913
    1825       3     786     800     911     913     913     913     913     913
    1826       3     773     741     785     881     881     881     881     881
    1827       3     754     763     773     881     881     881     881     881
    1828       3     754     773     785     881     881     881     881     881
    1829       3     842     800     895     914     914     914     914     914
    1830       3     853     842     895     914     914     914     914     914
    1831       3     763     741     773     881     881     881     881     881
    1832       3     741     763     773     847     847     847     847     847
    1833       3     508     493     507     882     882     882     882     882
    1834       3     516     813     858     886     886     886     886     886
    1835       3     535     528     693     883     883     883     883     883
    1836       3     712     709     695     883     883     883     883     883
    1837       3     695     709     693     883     883     883     883     883
    1838       3     528     695     693     883     883     883     883     883
    1839       3     693     709     694     883     883     883     883     883
    1840       3     771     747     803     900     900     900     900     900
    1841       3     885     854     903     907     907     907     907     907
    1842       3     517     813     854     884     884     884     884     884
    1843       3     517     520     813     884     884     884     884     884
    1844       3     838     877     903     907     907     907     907     907
    1845       3     476     691     484     907     907     907     907     907
    1846       3     756     744     802     897     897     897     897     897
    1847       3     744     769     850     897     897     897     897     897
    1848       3     506     775     854     907     907     907     907     907
    1849       3     503     809     847     884     884     884     884     884
    1850       3     503     520     513     884     884     884     884     884
    1851       3     503     502     520     884     884     884     884     884
    1852       3     513     520     517     884     884     884     884     884
    1853       3     503     513     505     884     884     884     884     884
    1854       3     726     712     727     908     908     908     908     908
    1855       3     731     833     890     908     908     908     908     908
    1856       3     877     786     902     908     908     908     908     908
    1857       3     494     493     699     885     885     885     885     885
    1858       3     699     493     873     885     885     885     885     885
    1859       3     507     494     506     885     885     885     885     885
    1860       3     493     494     507     885     885     885     885     885
    1861       3     731     712     833     908     908     908     908     908
    1862       3     800     731     890     908     908     908     908     908
    1863       3     440     414     439     888     888     888     888     888
    1864       3     708     718     719     888     888     888     888     888
    1865       3     742     826     861     889     889     889     889     889
    1866       3     742     818     826     889     889     889     889     889
    1867       3     826     818     829     889     889     889     889     889
    1868       3     775     711     877     907     907     907     907     907
    1869       3     804     729     912     915     915     915     915     915
    1870       3     720     704     878     895     895     895     895     895
    1871       3     722     719     842     895     895     895     895     895
    1872       3     842     719     888     895     895     895     895     895
    1873       3     842     807     853     895     895     895     895     895
    1874       3     704     720     860     895     895     895     895     895
    1875       3     878     807     888     895     895     895     895     895
    1876       3     754     829     837     915     915     915     915     915
    1877       3     800     722     842     895     895     895     895     895
    1878       3     707     878     888     895     895     895     895     895
    1879       3     424     668     658     891     891     891     891     891
    1880       3     679     678     668     891     891     891     891     891
    1881       3     789     738     891     892     892     892     892     892
    1882       3     679     789     891     892     892     892     892     892
    1883       3     667     679     668     892     892     892     892     892
    1884       3     423     667     668     892     892     892     892     892
    1885       3     443     423     444     892     892     892     892     892
    1886       3     455     443     444     892     892     892     892     892
    1887       3     743     737     784     894     894     894     894     894
    1888       3     784     737     889     894     894     894     894     894
    1889       3     744     743     784     894     894     894     894     894
    1890       3     744     784     889     894     894     894     894     894
    1891       3     560     561     814     894     894     894     894     894
    1892       3     742     560     814     894     894     894     894     894
    1893       3     560     742     748     894     894     894     894     894
    1894       3     561     560     748     894     894     894     894     894
    1895       3     719     707     888     895     895     895     895     895
    1896       3     801     807     860     895     895     895     895     895
    1897       3     765     801     860     895     895     895     895     895
    1898       3     801     765     807     895     895     895     895     895
    1899       3     740     776     875     915     915     915     915     915
    1900       3     729     776     912     915     915     915     915     915
    1901       3     717     722     800     895     895     895     895     895
    1902       3     765     807     914     834     834     834     834     834
    1903       3     837     876     804     915     915     915     915     915
    1904       3     776     754     881     915     915     915     915     915
    1905       3     707     719     720     895     895     895     895     895
    1906       3     719     722     720     895     895     895     895     895
    1907       3     722     717     720     895     895     895     895     895
    1908       3     483     505     823     896     896     896     896     896
    1909       3     809     483     823     896     896     896     896     896
    1910       3     503     483     809     896     896     896     896     896
    1911       3     483     503     505     896     896     896     896     896
    1912       3     672     666     802     897     897     897     897     897
    1913       3     672     677     666     897     897     897     897     897
    1914       3     470     500     547     898     898     898     898     898
    1915       3     826     742     886     898     898     898     898     898
    1916       3     774     826     886     898     898     898     898     898
    1917       3     510     774     886     898     898     898     898     898
    1918       3     500     510     886     898     898     898     898     898
    1919       3     510     500     774     898     898     898     898     898
    1920       3     537     490     470     898     898     898     898     898
    1921       3     559     537     547     898     898     898     898     898
    1922       3     560     559     547     898     898     898     898     898
    1923       3     537     470     547     898     898     898     898     898
    1924       3     470     490     500     898     898     898     898     898
    1925       3     677     850     897     899     899     899     899     899
    1926       3     677     687     850     899     899     899     899     899
    1927       3     686     688     687     899     899     899     899     899
    1928       3     672     686     687     899     899     899     899     899
    1929       3     677     672     687     899     899     899     899     899
    1930       3     571     557     771     900     900     900     900     900
    1931       3     572     571     771     900     900     900     900     900
    1932       3     567     562     572     900     900     900     900     900
    1933       3     562     557     572     900     900     900     900     900
    1934       3     567     572     569     900     900     900     900     900
    1935       3     557     571     572     900     900     900     900     900
    1936       3     696     417     579     901     901     901     901     901
    1937       3     588     593     579     901     901     901     901     901
    1938       3     427     588     417     901     901     901     901     901
    1939       3     451     428     427     901     901     901     901     901
    1940       3     578     588     579     901     901     901     901     901
    1941       3     417     578     579     901     901     901     901     901
    1942       3     417     588     578     901     901     901     901     901
    1943       3     710     726     728     902     902     902     902     902
    1944       3     710     709     726     902     902     902     902     902
    1945       3     814     806     818     917     917     917     917     917
    1946       3     710     877     728     711     711     711     711     711
    1947       3     837     763     838     903     903     903     903     903
    1948       3     838     763     854     903     903     903     903     903
    1949       3     763     825     854     903     903     903     903     903
    1950       3     813     763     837     903     903     903     903     903
    1951       3     763     813     825     903     903     903     903     903
    1952       3     825     813     837     903     903     903     903     903
    1953       3     785     732     824     905     905     905     905     905
    1954       3     811     673     824     905     905     905     905     905
    1955       3     733     811     824     905     905     905     905     905
    1956       3     767     785     824     905     905     905     905     905
    1957       3     785     767     798     905     905     905     905     905
    1958       3     673     671     824     905     905     905     905     905
    1959       3     671     681     798     905     905     905     905     905
    1960       3     652     649     733     905     905     905     905     905
    1961       3     649     673     811     905     905     905     905     905
    1962       3     733     649     811     905     905     905     905     905
    1963       3     671     767     824     905     905     905     905     905
    1964       3     767     671     798     905     905     905     905     905
    1965       3     681     673     674     905     905     905     905     905
    1966       3     673     652     674     905     905     905     905     905
    1967       3     673     681     671     905     905     905     905     905
    1968       3     649     652     673     905     905     905     905     905
    1969       3     740     769     864     906     906     906     906     906
    1970       3     476     494     700     907     907     907     907     907
    1971       3     711     710     877     907     907     907     907     907
    1972       3     710     700     885     907     907     907     907     907
    1973       3     775     838     854     907     907     907     907     907
    1974       3     854     838     903     907     907     907     907     907
    1975       3     885     877     902     907     907     907     907     907
    1976       3     710     885     902     907     907     907     907     907
    1977       3     877     710     902     907     907     907     907     907
    1978       3     494     484     506     907     907     907     907     907
    1979       3     494     476     484     907     907     907     907     907
    1980       3     700     711     691     907     907     907     907     907
    1981       3     476     700     691     907     907     907     907     907
    1982       3     710     711     700     907     907     907     907     907
    1983       3     712     717     727     908     908     908     908     908
    1984       3     851     832     870     912     912     912     912     912
    1985       3     739     779     893     909     909     909     909     909
    1986       3     855     739     893     909     909     909     909     909
    1987       3     818     806     829     917     917     917     917     917
    1988       3     744     864     906     917     917     917     917     917
    1989       3     740     769     906     909     909     909     909     909
    1990       3     803     740     906     909     909     909     909     909
    1991       3     744     756     814     917     917     917     917     917
    1992       3     806     756     906     917     917     917     917     917
    1993       3     756     806     814     917     917     917     917     917
    1994       3     752     764     797     910     910     910     910     910
    1995       3     746     764     851     910     910     910     910     910
    1996       3     746     730     764     910     910     910     910     910
    1997       3     761     851     746     880     880     880     880     880
    1998       3     851     761     746     910     910     910     910     910
    1999       3     738     789     797     910     910     910     910     910
    2000       3     797     789     816     910     910     910     910     910
    2001       3     789     738     828     910     910     910     910     910
    2002       3     816     789     828     910     910     910     910     910
    2003       3     728     725     877     911     911     911     911     911
    2004       3     805     786     877     911     911     911     911     911
    2005       3     725     805     877     911     911     911     911     911
    2006       3     877     908     728     911     911     911     911     911
    2007       3     908     877     728     902     902     902     902     902
    2008       3     722     724     727     911     911     911     911     911
    2009       3     727     724     725     911     911     911     911     911
    2010       3     727     725     728     911     911     911     911     911
    2011       3     848     729     880     912     912     912     912     912
    2012       3     769     740     872     916     916     916     916     916
    2013       3     740     769     909     916     916     916     916     916
    2014       3     780     771     803     916     916     916     916     916
    2015       3     821     731     890     914     914     914     914     914
    2016       3     731     800     890     914     914     914     914     914
    2017       3     807     853     895     914     914     914     914     914
    2018       3     853     807     856     914     914     914     914     914
    2019       3     834     765     856     914     914     914     914     914
    2020       3     771     821     856     914     914     914     914     914
    2021       3     799     771     856     914     914     914     914     914
    2022       3     799     765     844     914     914     914     914     914
    2023       3     765     731     844     914     914     914     914     914
    2024       3     807     765     914     895     895     895     895     895
    2025       3     807     834     856     914     914     914     914     914
    2026       3     821     771     849     914     914     914     914     914
    2027       3     771     799     849     914     914     914     914     914
    2028       3     799     844     849     914     914     914     914     914
    2029       3     844     731     849     914     914     914     914     914
    2030       3     731     821     849     914     914     914     914     914
    2031       3     821     740     875     915     915     915     915     915
    2032       3     740     821     829     915     915     915     915     915
    2033       3     829     821     837     915     915     915     915     915
    2034       3     740     776     872     916     916     916     916     916
    2035       3     872     776     875     916     916     916     916     916
    2036       3     778     758     780     916     916     916     916     916
    2037       3     780     758     856     916     916     916     916     916
    2038       3     758     778     875     916     916     916     916     916
    2039       3     856     758     875     916     916     916     916     916
*PART
$#                                                                         title
cub
$#     pid     secid       mid     eosid      hgid      grav    adpopt      tmid
         3         0         1         0         0         0         0         0
*DEFINE_CURVE
$#    lcid      sidr       sfa       sfo      offa      offo    dattyp     lcint
         1         0       1.0       1.0       0.0       0.0         0         0
$#                a1                  o1  
                 0.0               300.0
                 1.0               300.0
*CONSTRAINED_NODE_SET
$#    nsid       dof        tf  
         1         7      10.0
*CONTROL_TERMINATION
         100.0
*END
